* XSpice netlist created from SPICE and liberty sources by spi2xspice.py
*SPICE netlist created from BLIF module sm_cpu by blif2BSpice
.subckt sm_cpu a_vdd a_gnd a_clk a_rst_n a_regAddr_0_ a_regAddr_1_ a_regAddr_2_ a_regAddr_3_ a_regAddr_4_ a_imData_0_ a_imData_1_ a_imData_2_ a_imData_3_ a_imData_4_ a_imData_5_ a_imData_6_ a_imData_7_ a_imData_8_ a_imData_9_ a_imData_10_ a_imData_11_ a_imData_12_ a_imData_13_ a_imData_14_ a_imData_15_ a_imData_16_ a_imData_17_ a_imData_18_ a_imData_19_ a_imData_20_ a_imData_21_ a_imData_22_ a_imData_23_ a_imData_24_ a_imData_25_ a_imData_26_ a_imData_27_ a_imData_28_ a_imData_29_ a_imData_30_ a_imData_31_ a_regData_0_ a_regData_1_ a_regData_2_ a_regData_3_ a_regData_4_ a_regData_5_ a_regData_6_ a_regData_7_ a_regData_8_ a_regData_9_ a_regData_10_ a_regData_11_ a_regData_12_ a_regData_13_ a_regData_14_ a_regData_15_ a_regData_16_ a_regData_17_ a_regData_18_ a_regData_19_ a_regData_20_ a_regData_21_ a_regData_22_ a_regData_23_ a_regData_24_ a_regData_25_ a_regData_26_ a_regData_27_ a_regData_28_ a_regData_29_ a_regData_30_ a_regData_31_ a_imAddr_0_ a_imAddr_1_ a_imAddr_2_ a_imAddr_3_ a_imAddr_4_ a_imAddr_5_ a_imAddr_6_ a_imAddr_7_ a_imAddr_8_ a_imAddr_9_ a_imAddr_10_ a_imAddr_11_ a_imAddr_12_ a_imAddr_13_ a_imAddr_14_ a_imAddr_15_ a_imAddr_16_ a_imAddr_17_ a_imAddr_18_ a_imAddr_19_ a_imAddr_20_ a_imAddr_21_ a_imAddr_22_ a_imAddr_23_ a_imAddr_24_ a_imAddr_25_ a_imAddr_26_ a_imAddr_27_ a_imAddr_28_ a_imAddr_29_ a_imAddr_30_ a_imAddr_31_
ABUFX4_1 [regAddr_2_bF$buf4_] regAddr_2_bF$buf4_bF$buf3_ d_lut_BUFX4
ABUFX4_2 [regAddr_2_bF$buf4_] regAddr_2_bF$buf4_bF$buf2_ d_lut_BUFX4
ABUFX4_3 [regAddr_2_bF$buf4_] regAddr_2_bF$buf4_bF$buf1_ d_lut_BUFX4
ABUFX4_4 [regAddr_2_bF$buf4_] regAddr_2_bF$buf4_bF$buf0_ d_lut_BUFX4
ABUFX4_5 [regAddr_1_] regAddr_1__hier0_bF$buf5 d_lut_BUFX4
ABUFX4_6 [regAddr_1_] regAddr_1__hier0_bF$buf4 d_lut_BUFX4
ABUFX4_7 [regAddr_1_] regAddr_1__hier0_bF$buf3 d_lut_BUFX4
ABUFX4_8 [regAddr_1_] regAddr_1__hier0_bF$buf2 d_lut_BUFX4
ABUFX4_9 [regAddr_1_] regAddr_1__hier0_bF$buf1 d_lut_BUFX4
ABUFX4_10 [regAddr_1_] regAddr_1__hier0_bF$buf0 d_lut_BUFX4
ABUFX4_11 [regAddr_2_bF$buf13_] regAddr_2_bF$buf13_bF$buf3_ d_lut_BUFX4
ABUFX4_12 [regAddr_2_bF$buf13_] regAddr_2_bF$buf13_bF$buf2_ d_lut_BUFX4
ABUFX4_13 [regAddr_2_bF$buf13_] regAddr_2_bF$buf13_bF$buf1_ d_lut_BUFX4
ABUFX4_14 [regAddr_2_bF$buf13_] regAddr_2_bF$buf13_bF$buf0_ d_lut_BUFX4
ABUFX4_15 [imData_23_] imData_23__hier0_bF$buf5 d_lut_BUFX4
ABUFX4_16 [imData_23_] imData_23__hier0_bF$buf4 d_lut_BUFX4
ABUFX4_17 [imData_23_] imData_23__hier0_bF$buf3 d_lut_BUFX4
ABUFX4_18 [imData_23_] imData_23__hier0_bF$buf2 d_lut_BUFX4
ABUFX4_19 [imData_23_] imData_23__hier0_bF$buf1 d_lut_BUFX4
ABUFX4_20 [imData_23_] imData_23__hier0_bF$buf0 d_lut_BUFX4
ABUFX4_21 [regAddr_2_bF$buf10_] regAddr_2_bF$buf10_bF$buf3_ d_lut_BUFX4
ABUFX4_22 [regAddr_2_bF$buf10_] regAddr_2_bF$buf10_bF$buf2_ d_lut_BUFX4
ABUFX4_23 [regAddr_2_bF$buf10_] regAddr_2_bF$buf10_bF$buf1_ d_lut_BUFX4
ABUFX4_24 [regAddr_2_bF$buf10_] regAddr_2_bF$buf10_bF$buf0_ d_lut_BUFX4
ABUFX4_25 [imData_17_] imData_17__hier0_bF$buf5 d_lut_BUFX4
ABUFX4_26 [imData_17_] imData_17__hier0_bF$buf4 d_lut_BUFX4
ABUFX4_27 [imData_17_] imData_17__hier0_bF$buf3 d_lut_BUFX4
ABUFX4_28 [imData_17_] imData_17__hier0_bF$buf2 d_lut_BUFX4
ABUFX4_29 [imData_17_] imData_17__hier0_bF$buf1 d_lut_BUFX4
ABUFX4_30 [imData_17_] imData_17__hier0_bF$buf0 d_lut_BUFX4
ABUFX4_31 [clk] clk_hier0_bF$buf9 d_lut_BUFX4
ABUFX4_32 [clk] clk_hier0_bF$buf8 d_lut_BUFX4
ABUFX4_33 [clk] clk_hier0_bF$buf7 d_lut_BUFX4
ABUFX4_34 [clk] clk_hier0_bF$buf6 d_lut_BUFX4
ABUFX4_35 [clk] clk_hier0_bF$buf5 d_lut_BUFX4
ABUFX4_36 [clk] clk_hier0_bF$buf4 d_lut_BUFX4
ABUFX4_37 [clk] clk_hier0_bF$buf3 d_lut_BUFX4
ABUFX4_38 [clk] clk_hier0_bF$buf2 d_lut_BUFX4
ABUFX4_39 [clk] clk_hier0_bF$buf1 d_lut_BUFX4
ABUFX4_40 [clk] clk_hier0_bF$buf0 d_lut_BUFX4
ABUFX4_41 [regAddr_2_bF$buf9_] regAddr_2_bF$buf9_bF$buf3_ d_lut_BUFX4
ABUFX4_42 [regAddr_2_bF$buf9_] regAddr_2_bF$buf9_bF$buf2_ d_lut_BUFX4
ABUFX4_43 [regAddr_2_bF$buf9_] regAddr_2_bF$buf9_bF$buf1_ d_lut_BUFX4
ABUFX4_44 [regAddr_2_bF$buf9_] regAddr_2_bF$buf9_bF$buf0_ d_lut_BUFX4
ABUFX4_45 [regAddr_2_bF$buf6_] regAddr_2_bF$buf6_bF$buf3_ d_lut_BUFX4
ABUFX4_46 [regAddr_2_bF$buf6_] regAddr_2_bF$buf6_bF$buf2_ d_lut_BUFX4
ABUFX4_47 [regAddr_2_bF$buf6_] regAddr_2_bF$buf6_bF$buf1_ d_lut_BUFX4
ABUFX4_48 [regAddr_2_bF$buf6_] regAddr_2_bF$buf6_bF$buf0_ d_lut_BUFX4
ABUFX4_49 [regAddr_2_bF$buf3_] regAddr_2_bF$buf3_bF$buf3_ d_lut_BUFX4
ABUFX4_50 [regAddr_2_bF$buf3_] regAddr_2_bF$buf3_bF$buf2_ d_lut_BUFX4
ABUFX4_51 [regAddr_2_bF$buf3_] regAddr_2_bF$buf3_bF$buf1_ d_lut_BUFX4
ABUFX4_52 [regAddr_2_bF$buf3_] regAddr_2_bF$buf3_bF$buf0_ d_lut_BUFX4
ABUFX4_53 [regAddr_0_] regAddr_0__hier0_bF$buf6 d_lut_BUFX4
ABUFX4_54 [regAddr_0_] regAddr_0__hier0_bF$buf5 d_lut_BUFX4
ABUFX4_55 [regAddr_0_] regAddr_0__hier0_bF$buf4 d_lut_BUFX4
ABUFX4_56 [regAddr_0_] regAddr_0__hier0_bF$buf3 d_lut_BUFX4
ABUFX4_57 [regAddr_0_] regAddr_0__hier0_bF$buf2 d_lut_BUFX4
ABUFX4_58 [regAddr_0_] regAddr_0__hier0_bF$buf1 d_lut_BUFX4
ABUFX4_59 [regAddr_0_] regAddr_0__hier0_bF$buf0 d_lut_BUFX4
ABUFX4_60 [regAddr_2_bF$buf12_] regAddr_2_bF$buf12_bF$buf3_ d_lut_BUFX4
ABUFX4_61 [regAddr_2_bF$buf12_] regAddr_2_bF$buf12_bF$buf2_ d_lut_BUFX4
ABUFX4_62 [regAddr_2_bF$buf12_] regAddr_2_bF$buf12_bF$buf1_ d_lut_BUFX4
ABUFX4_63 [regAddr_2_bF$buf12_] regAddr_2_bF$buf12_bF$buf0_ d_lut_BUFX4
ABUFX4_64 [imData_22_] imData_22__hier0_bF$buf5 d_lut_BUFX4
ABUFX4_65 [imData_22_] imData_22__hier0_bF$buf4 d_lut_BUFX4
ABUFX4_66 [imData_22_] imData_22__hier0_bF$buf3 d_lut_BUFX4
ABUFX4_67 [imData_22_] imData_22__hier0_bF$buf2 d_lut_BUFX4
ABUFX4_68 [imData_22_] imData_22__hier0_bF$buf1 d_lut_BUFX4
ABUFX4_69 [imData_22_] imData_22__hier0_bF$buf0 d_lut_BUFX4
ABUFX4_70 [imData_16_] imData_16__hier0_bF$buf6 d_lut_BUFX4
ABUFX4_71 [imData_16_] imData_16__hier0_bF$buf5 d_lut_BUFX4
ABUFX4_72 [imData_16_] imData_16__hier0_bF$buf4 d_lut_BUFX4
ABUFX4_73 [imData_16_] imData_16__hier0_bF$buf3 d_lut_BUFX4
ABUFX4_74 [imData_16_] imData_16__hier0_bF$buf2 d_lut_BUFX4
ABUFX4_75 [imData_16_] imData_16__hier0_bF$buf1 d_lut_BUFX4
ABUFX4_76 [imData_16_] imData_16__hier0_bF$buf0 d_lut_BUFX4
ABUFX4_77 [regAddr_2_bF$buf8_] regAddr_2_bF$buf8_bF$buf3_ d_lut_BUFX4
ABUFX4_78 [regAddr_2_bF$buf8_] regAddr_2_bF$buf8_bF$buf2_ d_lut_BUFX4
ABUFX4_79 [regAddr_2_bF$buf8_] regAddr_2_bF$buf8_bF$buf1_ d_lut_BUFX4
ABUFX4_80 [regAddr_2_bF$buf8_] regAddr_2_bF$buf8_bF$buf0_ d_lut_BUFX4
ABUFX4_81 [regAddr_2_bF$buf5_] regAddr_2_bF$buf5_bF$buf3_ d_lut_BUFX4
ABUFX4_82 [regAddr_2_bF$buf5_] regAddr_2_bF$buf5_bF$buf2_ d_lut_BUFX4
ABUFX4_83 [regAddr_2_bF$buf5_] regAddr_2_bF$buf5_bF$buf1_ d_lut_BUFX4
ABUFX4_84 [regAddr_2_bF$buf5_] regAddr_2_bF$buf5_bF$buf0_ d_lut_BUFX4
ABUFX4_85 [regAddr_2_bF$buf2_] regAddr_2_bF$buf2_bF$buf3_ d_lut_BUFX4
ABUFX4_86 [regAddr_2_bF$buf2_] regAddr_2_bF$buf2_bF$buf2_ d_lut_BUFX4
ABUFX4_87 [regAddr_2_bF$buf2_] regAddr_2_bF$buf2_bF$buf1_ d_lut_BUFX4
ABUFX4_88 [regAddr_2_bF$buf2_] regAddr_2_bF$buf2_bF$buf0_ d_lut_BUFX4
ABUFX4_89 [regAddr_2_bF$buf14_] regAddr_2_bF$buf14_bF$buf3_ d_lut_BUFX4
ABUFX4_90 [regAddr_2_bF$buf14_] regAddr_2_bF$buf14_bF$buf2_ d_lut_BUFX4
ABUFX4_91 [regAddr_2_bF$buf14_] regAddr_2_bF$buf14_bF$buf1_ d_lut_BUFX4
ABUFX4_92 [regAddr_2_bF$buf14_] regAddr_2_bF$buf14_bF$buf0_ d_lut_BUFX4
ABUFX4_93 [regAddr_2_bF$buf11_] regAddr_2_bF$buf11_bF$buf3_ d_lut_BUFX4
ABUFX4_94 [regAddr_2_bF$buf11_] regAddr_2_bF$buf11_bF$buf2_ d_lut_BUFX4
ABUFX4_95 [regAddr_2_bF$buf11_] regAddr_2_bF$buf11_bF$buf1_ d_lut_BUFX4
ABUFX4_96 [regAddr_2_bF$buf11_] regAddr_2_bF$buf11_bF$buf0_ d_lut_BUFX4
ABUFX4_97 [imData_21_] imData_21__hier0_bF$buf6 d_lut_BUFX4
ABUFX4_98 [imData_21_] imData_21__hier0_bF$buf5 d_lut_BUFX4
ABUFX4_99 [imData_21_] imData_21__hier0_bF$buf4 d_lut_BUFX4
ABUFX4_100 [imData_21_] imData_21__hier0_bF$buf3 d_lut_BUFX4
ABUFX4_101 [imData_21_] imData_21__hier0_bF$buf2 d_lut_BUFX4
ABUFX4_102 [imData_21_] imData_21__hier0_bF$buf1 d_lut_BUFX4
ABUFX4_103 [imData_21_] imData_21__hier0_bF$buf0 d_lut_BUFX4
ABUFX4_104 [imData_18_] imData_18__hier0_bF$buf5 d_lut_BUFX4
ABUFX4_105 [imData_18_] imData_18__hier0_bF$buf4 d_lut_BUFX4
ABUFX4_106 [imData_18_] imData_18__hier0_bF$buf3 d_lut_BUFX4
ABUFX4_107 [imData_18_] imData_18__hier0_bF$buf2 d_lut_BUFX4
ABUFX4_108 [imData_18_] imData_18__hier0_bF$buf1 d_lut_BUFX4
ABUFX4_109 [imData_18_] imData_18__hier0_bF$buf0 d_lut_BUFX4
ABUFX4_110 [regAddr_2_bF$buf7_] regAddr_2_bF$buf7_bF$buf3_ d_lut_BUFX4
ABUFX4_111 [regAddr_2_bF$buf7_] regAddr_2_bF$buf7_bF$buf2_ d_lut_BUFX4
ABUFX4_112 [regAddr_2_bF$buf7_] regAddr_2_bF$buf7_bF$buf1_ d_lut_BUFX4
ABUFX4_113 [regAddr_2_bF$buf7_] regAddr_2_bF$buf7_bF$buf0_ d_lut_BUFX4
ABUFX4_114 [regAddr_1__hier0_bF$buf5] regAddr_1_bF$buf43_ d_lut_BUFX4
ABUFX4_115 [regAddr_1__hier0_bF$buf4] regAddr_1_bF$buf42_ d_lut_BUFX4
ABUFX4_116 [regAddr_1__hier0_bF$buf3] regAddr_1_bF$buf41_ d_lut_BUFX4
ABUFX4_117 [regAddr_1__hier0_bF$buf2] regAddr_1_bF$buf40_ d_lut_BUFX4
ABUFX4_118 [regAddr_1__hier0_bF$buf1] regAddr_1_bF$buf39_ d_lut_BUFX4
ABUFX4_119 [regAddr_1__hier0_bF$buf0] regAddr_1_bF$buf38_ d_lut_BUFX4
ABUFX4_120 [regAddr_1__hier0_bF$buf5] regAddr_1_bF$buf37_ d_lut_BUFX4
ABUFX4_121 [regAddr_1__hier0_bF$buf4] regAddr_1_bF$buf36_ d_lut_BUFX4
ABUFX4_122 [regAddr_1__hier0_bF$buf3] regAddr_1_bF$buf35_ d_lut_BUFX4
ABUFX4_123 [regAddr_1__hier0_bF$buf2] regAddr_1_bF$buf34_ d_lut_BUFX4
ABUFX4_124 [regAddr_1__hier0_bF$buf1] regAddr_1_bF$buf33_ d_lut_BUFX4
ABUFX4_125 [regAddr_1__hier0_bF$buf0] regAddr_1_bF$buf32_ d_lut_BUFX4
ABUFX4_126 [regAddr_1__hier0_bF$buf5] regAddr_1_bF$buf31_ d_lut_BUFX4
ABUFX4_127 [regAddr_1__hier0_bF$buf4] regAddr_1_bF$buf30_ d_lut_BUFX4
ABUFX4_128 [regAddr_1__hier0_bF$buf3] regAddr_1_bF$buf29_ d_lut_BUFX4
ABUFX4_129 [regAddr_1__hier0_bF$buf2] regAddr_1_bF$buf28_ d_lut_BUFX4
ABUFX4_130 [regAddr_1__hier0_bF$buf1] regAddr_1_bF$buf27_ d_lut_BUFX4
ABUFX4_131 [regAddr_1__hier0_bF$buf0] regAddr_1_bF$buf26_ d_lut_BUFX4
ABUFX4_132 [regAddr_1__hier0_bF$buf5] regAddr_1_bF$buf25_ d_lut_BUFX4
ABUFX4_133 [regAddr_1__hier0_bF$buf4] regAddr_1_bF$buf24_ d_lut_BUFX4
ABUFX4_134 [regAddr_1__hier0_bF$buf3] regAddr_1_bF$buf23_ d_lut_BUFX4
ABUFX4_135 [regAddr_1__hier0_bF$buf2] regAddr_1_bF$buf22_ d_lut_BUFX4
ABUFX4_136 [regAddr_1__hier0_bF$buf1] regAddr_1_bF$buf21_ d_lut_BUFX4
ABUFX4_137 [regAddr_1__hier0_bF$buf0] regAddr_1_bF$buf20_ d_lut_BUFX4
ABUFX4_138 [regAddr_1__hier0_bF$buf5] regAddr_1_bF$buf19_ d_lut_BUFX4
ABUFX4_139 [regAddr_1__hier0_bF$buf4] regAddr_1_bF$buf18_ d_lut_BUFX4
ABUFX4_140 [regAddr_1__hier0_bF$buf3] regAddr_1_bF$buf17_ d_lut_BUFX4
ABUFX4_141 [regAddr_1__hier0_bF$buf2] regAddr_1_bF$buf16_ d_lut_BUFX4
ABUFX4_142 [regAddr_1__hier0_bF$buf1] regAddr_1_bF$buf15_ d_lut_BUFX4
ABUFX4_143 [regAddr_1__hier0_bF$buf0] regAddr_1_bF$buf14_ d_lut_BUFX4
ABUFX4_144 [regAddr_1__hier0_bF$buf5] regAddr_1_bF$buf13_ d_lut_BUFX4
ABUFX4_145 [regAddr_1__hier0_bF$buf4] regAddr_1_bF$buf12_ d_lut_BUFX4
ABUFX4_146 [regAddr_1__hier0_bF$buf3] regAddr_1_bF$buf11_ d_lut_BUFX4
ABUFX4_147 [regAddr_1__hier0_bF$buf2] regAddr_1_bF$buf10_ d_lut_BUFX4
ABUFX4_148 [regAddr_1__hier0_bF$buf1] regAddr_1_bF$buf9_ d_lut_BUFX4
ABUFX4_149 [regAddr_1__hier0_bF$buf0] regAddr_1_bF$buf8_ d_lut_BUFX4
ABUFX4_150 [regAddr_1__hier0_bF$buf5] regAddr_1_bF$buf7_ d_lut_BUFX4
ABUFX4_151 [regAddr_1__hier0_bF$buf4] regAddr_1_bF$buf6_ d_lut_BUFX4
ABUFX4_152 [regAddr_1__hier0_bF$buf3] regAddr_1_bF$buf5_ d_lut_BUFX4
ABUFX4_153 [regAddr_1__hier0_bF$buf2] regAddr_1_bF$buf4_ d_lut_BUFX4
ABUFX4_154 [regAddr_1__hier0_bF$buf1] regAddr_1_bF$buf3_ d_lut_BUFX4
ABUFX4_155 [regAddr_1__hier0_bF$buf0] regAddr_1_bF$buf2_ d_lut_BUFX4
ABUFX4_156 [regAddr_1__hier0_bF$buf5] regAddr_1_bF$buf1_ d_lut_BUFX4
ABUFX4_157 [regAddr_1__hier0_bF$buf4] regAddr_1_bF$buf0_ d_lut_BUFX4
ABUFX4_158 [_7042_] _7042__bF$buf4 d_lut_BUFX4
ABUFX4_159 [_7042_] _7042__bF$buf3 d_lut_BUFX4
ABUFX4_160 [_7042_] _7042__bF$buf2 d_lut_BUFX4
ABUFX4_161 [_7042_] _7042__bF$buf1 d_lut_BUFX4
ABUFX4_162 [_7042_] _7042__bF$buf0 d_lut_BUFX4
ABUFX4_163 [_7136_] _7136__bF$buf7 d_lut_BUFX4
ABUFX4_164 [_7136_] _7136__bF$buf6 d_lut_BUFX4
ABUFX4_165 [_7136_] _7136__bF$buf5 d_lut_BUFX4
ABUFX4_166 [_7136_] _7136__bF$buf4 d_lut_BUFX4
ABUFX4_167 [_7136_] _7136__bF$buf3 d_lut_BUFX4
ABUFX4_168 [_7136_] _7136__bF$buf2 d_lut_BUFX4
ABUFX4_169 [_7136_] _7136__bF$buf1 d_lut_BUFX4
ABUFX4_170 [_7136_] _7136__bF$buf0 d_lut_BUFX4
ABUFX4_171 [_1025_] _1025__bF$buf3 d_lut_BUFX4
ABUFX4_172 [_1025_] _1025__bF$buf2 d_lut_BUFX4
ABUFX4_173 [_1025_] _1025__bF$buf1 d_lut_BUFX4
ABUFX4_174 [_1025_] _1025__bF$buf0 d_lut_BUFX4
ABUFX4_175 [_7077_] _7077__bF$buf4 d_lut_BUFX4
ABUFX4_176 [_7077_] _7077__bF$buf3 d_lut_BUFX4
ABUFX4_177 [_7077_] _7077__bF$buf2 d_lut_BUFX4
ABUFX4_178 [_7077_] _7077__bF$buf1 d_lut_BUFX4
ABUFX4_179 [_7077_] _7077__bF$buf0 d_lut_BUFX4
ABUFX4_180 [_7973_] _7973__bF$buf4 d_lut_BUFX4
ABUFX4_181 [_7973_] _7973__bF$buf3 d_lut_BUFX4
ABUFX4_182 [_7973_] _7973__bF$buf2 d_lut_BUFX4
ABUFX4_183 [_7973_] _7973__bF$buf1 d_lut_BUFX4
ABUFX4_184 [_7973_] _7973__bF$buf0 d_lut_BUFX4
ABUFX4_185 [_7171_] _7171__bF$buf7 d_lut_BUFX4
ABUFX4_186 [_7171_] _7171__bF$buf6 d_lut_BUFX4
ABUFX4_187 [_7171_] _7171__bF$buf5 d_lut_BUFX4
ABUFX4_188 [_7171_] _7171__bF$buf4 d_lut_BUFX4
ABUFX4_189 [_7171_] _7171__bF$buf3 d_lut_BUFX4
ABUFX4_190 [_7171_] _7171__bF$buf2 d_lut_BUFX4
ABUFX4_191 [_7171_] _7171__bF$buf1 d_lut_BUFX4
ABUFX4_192 [_7171_] _7171__bF$buf0 d_lut_BUFX4
ABUFX4_193 [rst_n] rst_n_bF$buf4 d_lut_BUFX4
ABUFX4_194 [rst_n] rst_n_bF$buf3 d_lut_BUFX4
ABUFX4_195 [rst_n] rst_n_bF$buf2 d_lut_BUFX4
ABUFX4_196 [rst_n] rst_n_bF$buf1 d_lut_BUFX4
ABUFX4_197 [rst_n] rst_n_bF$buf0 d_lut_BUFX4
ABUFX4_198 [_1019_] _1019__bF$buf3 d_lut_BUFX4
ABUFX4_199 [_1019_] _1019__bF$buf2 d_lut_BUFX4
ABUFX4_200 [_1019_] _1019__bF$buf1 d_lut_BUFX4
ABUFX4_201 [_1019_] _1019__bF$buf0 d_lut_BUFX4
ABUFX4_202 [imData_23__hier0_bF$buf5] imData_23_bF$buf42_ d_lut_BUFX4
ABUFX4_203 [imData_23__hier0_bF$buf4] imData_23_bF$buf41_ d_lut_BUFX4
ABUFX4_204 [imData_23__hier0_bF$buf3] imData_23_bF$buf40_ d_lut_BUFX4
ABUFX4_205 [imData_23__hier0_bF$buf2] imData_23_bF$buf39_ d_lut_BUFX4
ABUFX4_206 [imData_23__hier0_bF$buf1] imData_23_bF$buf38_ d_lut_BUFX4
ABUFX4_207 [imData_23__hier0_bF$buf0] imData_23_bF$buf37_ d_lut_BUFX4
ABUFX4_208 [imData_23__hier0_bF$buf5] imData_23_bF$buf36_ d_lut_BUFX4
ABUFX4_209 [imData_23__hier0_bF$buf4] imData_23_bF$buf35_ d_lut_BUFX4
ABUFX4_210 [imData_23__hier0_bF$buf3] imData_23_bF$buf34_ d_lut_BUFX4
ABUFX4_211 [imData_23__hier0_bF$buf2] imData_23_bF$buf33_ d_lut_BUFX4
ABUFX4_212 [imData_23__hier0_bF$buf1] imData_23_bF$buf32_ d_lut_BUFX4
ABUFX4_213 [imData_23__hier0_bF$buf0] imData_23_bF$buf31_ d_lut_BUFX4
ABUFX4_214 [imData_23__hier0_bF$buf5] imData_23_bF$buf30_ d_lut_BUFX4
ABUFX4_215 [imData_23__hier0_bF$buf4] imData_23_bF$buf29_ d_lut_BUFX4
ABUFX4_216 [imData_23__hier0_bF$buf3] imData_23_bF$buf28_ d_lut_BUFX4
ABUFX4_217 [imData_23__hier0_bF$buf2] imData_23_bF$buf27_ d_lut_BUFX4
ABUFX4_218 [imData_23__hier0_bF$buf1] imData_23_bF$buf26_ d_lut_BUFX4
ABUFX4_219 [imData_23__hier0_bF$buf0] imData_23_bF$buf25_ d_lut_BUFX4
ABUFX4_220 [imData_23__hier0_bF$buf5] imData_23_bF$buf24_ d_lut_BUFX4
ABUFX4_221 [imData_23__hier0_bF$buf4] imData_23_bF$buf23_ d_lut_BUFX4
ABUFX4_222 [imData_23__hier0_bF$buf3] imData_23_bF$buf22_ d_lut_BUFX4
ABUFX4_223 [imData_23__hier0_bF$buf2] imData_23_bF$buf21_ d_lut_BUFX4
ABUFX4_224 [imData_23__hier0_bF$buf1] imData_23_bF$buf20_ d_lut_BUFX4
ABUFX4_225 [imData_23__hier0_bF$buf0] imData_23_bF$buf19_ d_lut_BUFX4
ABUFX4_226 [imData_23__hier0_bF$buf5] imData_23_bF$buf18_ d_lut_BUFX4
ABUFX4_227 [imData_23__hier0_bF$buf4] imData_23_bF$buf17_ d_lut_BUFX4
ABUFX4_228 [imData_23__hier0_bF$buf3] imData_23_bF$buf16_ d_lut_BUFX4
ABUFX4_229 [imData_23__hier0_bF$buf2] imData_23_bF$buf15_ d_lut_BUFX4
ABUFX4_230 [imData_23__hier0_bF$buf1] imData_23_bF$buf14_ d_lut_BUFX4
ABUFX4_231 [imData_23__hier0_bF$buf0] imData_23_bF$buf13_ d_lut_BUFX4
ABUFX4_232 [imData_23__hier0_bF$buf5] imData_23_bF$buf12_ d_lut_BUFX4
ABUFX4_233 [imData_23__hier0_bF$buf4] imData_23_bF$buf11_ d_lut_BUFX4
ABUFX4_234 [imData_23__hier0_bF$buf3] imData_23_bF$buf10_ d_lut_BUFX4
ABUFX4_235 [imData_23__hier0_bF$buf2] imData_23_bF$buf9_ d_lut_BUFX4
ABUFX4_236 [imData_23__hier0_bF$buf1] imData_23_bF$buf8_ d_lut_BUFX4
ABUFX4_237 [imData_23__hier0_bF$buf0] imData_23_bF$buf7_ d_lut_BUFX4
ABUFX4_238 [imData_23__hier0_bF$buf5] imData_23_bF$buf6_ d_lut_BUFX4
ABUFX4_239 [imData_23__hier0_bF$buf4] imData_23_bF$buf5_ d_lut_BUFX4
ABUFX4_240 [imData_23__hier0_bF$buf3] imData_23_bF$buf4_ d_lut_BUFX4
ABUFX4_241 [imData_23__hier0_bF$buf2] imData_23_bF$buf3_ d_lut_BUFX4
ABUFX4_242 [imData_23__hier0_bF$buf1] imData_23_bF$buf2_ d_lut_BUFX4
ABUFX4_243 [imData_23__hier0_bF$buf0] imData_23_bF$buf1_ d_lut_BUFX4
ABUFX4_244 [imData_23__hier0_bF$buf5] imData_23_bF$buf0_ d_lut_BUFX4
ABUFX4_245 [_7130_] _7130__bF$buf3 d_lut_BUFX4
ABUFX4_246 [_7130_] _7130__bF$buf2 d_lut_BUFX4
ABUFX4_247 [_7130_] _7130__bF$buf1 d_lut_BUFX4
ABUFX4_248 [_7130_] _7130__bF$buf0 d_lut_BUFX4
ABUFX4_249 [_7873_] _7873__bF$buf7 d_lut_BUFX4
ABUFX4_250 [_7873_] _7873__bF$buf6 d_lut_BUFX4
ABUFX4_251 [_7873_] _7873__bF$buf5 d_lut_BUFX4
ABUFX4_252 [_7873_] _7873__bF$buf4 d_lut_BUFX4
ABUFX4_253 [_7873_] _7873__bF$buf3 d_lut_BUFX4
ABUFX4_254 [_7873_] _7873__bF$buf2 d_lut_BUFX4
ABUFX4_255 [_7873_] _7873__bF$buf1 d_lut_BUFX4
ABUFX4_256 [_7873_] _7873__bF$buf0 d_lut_BUFX4
ABUFX4_257 [_7738_] _7738__bF$buf7 d_lut_BUFX4
ABUFX4_258 [_7738_] _7738__bF$buf6 d_lut_BUFX4
ABUFX4_259 [_7738_] _7738__bF$buf5 d_lut_BUFX4
ABUFX4_260 [_7738_] _7738__bF$buf4 d_lut_BUFX4
ABUFX4_261 [_7738_] _7738__bF$buf3 d_lut_BUFX4
ABUFX4_262 [_7738_] _7738__bF$buf2 d_lut_BUFX4
ABUFX4_263 [_7738_] _7738__bF$buf1 d_lut_BUFX4
ABUFX4_264 [_7738_] _7738__bF$buf0 d_lut_BUFX4
ABUFX4_265 [imData_20_] imData_20_bF$buf4_ d_lut_BUFX4
ABUFX4_266 [imData_20_] imData_20_bF$buf3_ d_lut_BUFX4
ABUFX4_267 [imData_20_] imData_20_bF$buf2_ d_lut_BUFX4
ABUFX4_268 [imData_20_] imData_20_bF$buf1_ d_lut_BUFX4
ABUFX4_269 [imData_20_] imData_20_bF$buf0_ d_lut_BUFX4
ABUFX4_270 [_8006_] _8006__bF$buf10 d_lut_BUFX4
ABUFX4_271 [_8006_] _8006__bF$buf9 d_lut_BUFX4
ABUFX4_272 [_8006_] _8006__bF$buf8 d_lut_BUFX4
ABUFX4_273 [_8006_] _8006__bF$buf7 d_lut_BUFX4
ABUFX4_274 [_8006_] _8006__bF$buf6 d_lut_BUFX4
ABUFX4_275 [_8006_] _8006__bF$buf5 d_lut_BUFX4
ABUFX4_276 [_8006_] _8006__bF$buf4 d_lut_BUFX4
ABUFX4_277 [_8006_] _8006__bF$buf3 d_lut_BUFX4
ABUFX4_278 [_8006_] _8006__bF$buf2 d_lut_BUFX4
ABUFX4_279 [_8006_] _8006__bF$buf1 d_lut_BUFX4
ABUFX4_280 [_8006_] _8006__bF$buf0 d_lut_BUFX4
ABUFX4_281 [_7030_] _7030__bF$buf5 d_lut_BUFX4
ABUFX4_282 [_7030_] _7030__bF$buf4 d_lut_BUFX4
ABUFX4_283 [_7030_] _7030__bF$buf3 d_lut_BUFX4
ABUFX4_284 [_7030_] _7030__bF$buf2 d_lut_BUFX4
ABUFX4_285 [_7030_] _7030__bF$buf1 d_lut_BUFX4
ABUFX4_286 [_7030_] _7030__bF$buf0 d_lut_BUFX4
ABUFX4_287 [imData_17__hier0_bF$buf5] imData_17_bF$buf43_ d_lut_BUFX4
ABUFX4_288 [imData_17__hier0_bF$buf4] imData_17_bF$buf42_ d_lut_BUFX4
ABUFX4_289 [imData_17__hier0_bF$buf3] imData_17_bF$buf41_ d_lut_BUFX4
ABUFX4_290 [imData_17__hier0_bF$buf2] imData_17_bF$buf40_ d_lut_BUFX4
ABUFX4_291 [imData_17__hier0_bF$buf1] imData_17_bF$buf39_ d_lut_BUFX4
ABUFX4_292 [imData_17__hier0_bF$buf0] imData_17_bF$buf38_ d_lut_BUFX4
ABUFX4_293 [imData_17__hier0_bF$buf5] imData_17_bF$buf37_ d_lut_BUFX4
ABUFX4_294 [imData_17__hier0_bF$buf4] imData_17_bF$buf36_ d_lut_BUFX4
ABUFX4_295 [imData_17__hier0_bF$buf3] imData_17_bF$buf35_ d_lut_BUFX4
ABUFX4_296 [imData_17__hier0_bF$buf2] imData_17_bF$buf34_ d_lut_BUFX4
ABUFX4_297 [imData_17__hier0_bF$buf1] imData_17_bF$buf33_ d_lut_BUFX4
ABUFX4_298 [imData_17__hier0_bF$buf0] imData_17_bF$buf32_ d_lut_BUFX4
ABUFX4_299 [imData_17__hier0_bF$buf5] imData_17_bF$buf31_ d_lut_BUFX4
ABUFX4_300 [imData_17__hier0_bF$buf4] imData_17_bF$buf30_ d_lut_BUFX4
ABUFX4_301 [imData_17__hier0_bF$buf3] imData_17_bF$buf29_ d_lut_BUFX4
ABUFX4_302 [imData_17__hier0_bF$buf2] imData_17_bF$buf28_ d_lut_BUFX4
ABUFX4_303 [imData_17__hier0_bF$buf1] imData_17_bF$buf27_ d_lut_BUFX4
ABUFX4_304 [imData_17__hier0_bF$buf0] imData_17_bF$buf26_ d_lut_BUFX4
ABUFX4_305 [imData_17__hier0_bF$buf5] imData_17_bF$buf25_ d_lut_BUFX4
ABUFX4_306 [imData_17__hier0_bF$buf4] imData_17_bF$buf24_ d_lut_BUFX4
ABUFX4_307 [imData_17__hier0_bF$buf3] imData_17_bF$buf23_ d_lut_BUFX4
ABUFX4_308 [imData_17__hier0_bF$buf2] imData_17_bF$buf22_ d_lut_BUFX4
ABUFX4_309 [imData_17__hier0_bF$buf1] imData_17_bF$buf21_ d_lut_BUFX4
ABUFX4_310 [imData_17__hier0_bF$buf0] imData_17_bF$buf20_ d_lut_BUFX4
ABUFX4_311 [imData_17__hier0_bF$buf5] imData_17_bF$buf19_ d_lut_BUFX4
ABUFX4_312 [imData_17__hier0_bF$buf4] imData_17_bF$buf18_ d_lut_BUFX4
ABUFX4_313 [imData_17__hier0_bF$buf3] imData_17_bF$buf17_ d_lut_BUFX4
ABUFX4_314 [imData_17__hier0_bF$buf2] imData_17_bF$buf16_ d_lut_BUFX4
ABUFX4_315 [imData_17__hier0_bF$buf1] imData_17_bF$buf15_ d_lut_BUFX4
ABUFX4_316 [imData_17__hier0_bF$buf0] imData_17_bF$buf14_ d_lut_BUFX4
ABUFX4_317 [imData_17__hier0_bF$buf5] imData_17_bF$buf13_ d_lut_BUFX4
ABUFX4_318 [imData_17__hier0_bF$buf4] imData_17_bF$buf12_ d_lut_BUFX4
ABUFX4_319 [imData_17__hier0_bF$buf3] imData_17_bF$buf11_ d_lut_BUFX4
ABUFX4_320 [imData_17__hier0_bF$buf2] imData_17_bF$buf10_ d_lut_BUFX4
ABUFX4_321 [imData_17__hier0_bF$buf1] imData_17_bF$buf9_ d_lut_BUFX4
ABUFX4_322 [imData_17__hier0_bF$buf0] imData_17_bF$buf8_ d_lut_BUFX4
ABUFX4_323 [imData_17__hier0_bF$buf5] imData_17_bF$buf7_ d_lut_BUFX4
ABUFX4_324 [imData_17__hier0_bF$buf4] imData_17_bF$buf6_ d_lut_BUFX4
ABUFX4_325 [imData_17__hier0_bF$buf3] imData_17_bF$buf5_ d_lut_BUFX4
ABUFX4_326 [imData_17__hier0_bF$buf2] imData_17_bF$buf4_ d_lut_BUFX4
ABUFX4_327 [imData_17__hier0_bF$buf1] imData_17_bF$buf3_ d_lut_BUFX4
ABUFX4_328 [imData_17__hier0_bF$buf0] imData_17_bF$buf2_ d_lut_BUFX4
ABUFX4_329 [imData_17__hier0_bF$buf5] imData_17_bF$buf1_ d_lut_BUFX4
ABUFX4_330 [imData_17__hier0_bF$buf4] imData_17_bF$buf0_ d_lut_BUFX4
ABUFX4_331 [_7124_] _7124__bF$buf3 d_lut_BUFX4
ABUFX4_332 [_7124_] _7124__bF$buf2 d_lut_BUFX4
ABUFX4_333 [_7124_] _7124__bF$buf1 d_lut_BUFX4
ABUFX4_334 [_7124_] _7124__bF$buf0 d_lut_BUFX4
ABUFX4_335 [_7638_] _7638__bF$buf7 d_lut_BUFX4
ABUFX4_336 [_7638_] _7638__bF$buf6 d_lut_BUFX4
ABUFX4_337 [_7638_] _7638__bF$buf5 d_lut_BUFX4
ABUFX4_338 [_7638_] _7638__bF$buf4 d_lut_BUFX4
ABUFX4_339 [_7638_] _7638__bF$buf3 d_lut_BUFX4
ABUFX4_340 [_7638_] _7638__bF$buf2 d_lut_BUFX4
ABUFX4_341 [_7638_] _7638__bF$buf1 d_lut_BUFX4
ABUFX4_342 [_7638_] _7638__bF$buf0 d_lut_BUFX4
ABUFX4_343 [_7027_] _7027__bF$buf4 d_lut_BUFX4
ABUFX4_344 [_7027_] _7027__bF$buf3 d_lut_BUFX4
ABUFX4_345 [_7027_] _7027__bF$buf2 d_lut_BUFX4
ABUFX4_346 [_7027_] _7027__bF$buf1 d_lut_BUFX4
ABUFX4_347 [_7027_] _7027__bF$buf0 d_lut_BUFX4
ABUFX4_348 [_2638_] _2638__bF$buf11 d_lut_BUFX4
ABUFX4_349 [_2638_] _2638__bF$buf10 d_lut_BUFX4
ABUFX4_350 [_2638_] _2638__bF$buf9 d_lut_BUFX4
ABUFX4_351 [_2638_] _2638__bF$buf8 d_lut_BUFX4
ABUFX4_352 [_2638_] _2638__bF$buf7 d_lut_BUFX4
ABUFX4_353 [_2638_] _2638__bF$buf6 d_lut_BUFX4
ABUFX4_354 [_2638_] _2638__bF$buf5 d_lut_BUFX4
ABUFX4_355 [_2638_] _2638__bF$buf4 d_lut_BUFX4
ABUFX4_356 [_2638_] _2638__bF$buf3 d_lut_BUFX4
ABUFX4_357 [_2638_] _2638__bF$buf2 d_lut_BUFX4
ABUFX4_358 [_2638_] _2638__bF$buf1 d_lut_BUFX4
ABUFX4_359 [_2638_] _2638__bF$buf0 d_lut_BUFX4
ABUFX4_360 [_7065_] _7065__bF$buf4 d_lut_BUFX4
ABUFX4_361 [_7065_] _7065__bF$buf3 d_lut_BUFX4
ABUFX4_362 [_7065_] _7065__bF$buf2 d_lut_BUFX4
ABUFX4_363 [_7065_] _7065__bF$buf1 d_lut_BUFX4
ABUFX4_364 [_7065_] _7065__bF$buf0 d_lut_BUFX4
ABUFX4_365 [_2635_] _2635__bF$buf10 d_lut_BUFX4
ABUFX4_366 [_2635_] _2635__bF$buf9 d_lut_BUFX4
ABUFX4_367 [_2635_] _2635__bF$buf8 d_lut_BUFX4
ABUFX4_368 [_2635_] _2635__bF$buf7 d_lut_BUFX4
ABUFX4_369 [_2635_] _2635__bF$buf6 d_lut_BUFX4
ABUFX4_370 [_2635_] _2635__bF$buf5 d_lut_BUFX4
ABUFX4_371 [_2635_] _2635__bF$buf4 d_lut_BUFX4
ABUFX4_372 [_2635_] _2635__bF$buf3 d_lut_BUFX4
ABUFX4_373 [_2635_] _2635__bF$buf2 d_lut_BUFX4
ABUFX4_374 [_2635_] _2635__bF$buf1 d_lut_BUFX4
ABUFX4_375 [_2635_] _2635__bF$buf0 d_lut_BUFX4
ACLKBUF1_1 [clk_hier0_bF$buf9] clk_bF$buf102 d_lut_CLKBUF1
ACLKBUF1_2 [clk_hier0_bF$buf8] clk_bF$buf101 d_lut_CLKBUF1
ACLKBUF1_3 [clk_hier0_bF$buf7] clk_bF$buf100 d_lut_CLKBUF1
ACLKBUF1_4 [clk_hier0_bF$buf6] clk_bF$buf99 d_lut_CLKBUF1
ACLKBUF1_5 [clk_hier0_bF$buf5] clk_bF$buf98 d_lut_CLKBUF1
ACLKBUF1_6 [clk_hier0_bF$buf4] clk_bF$buf97 d_lut_CLKBUF1
ACLKBUF1_7 [clk_hier0_bF$buf3] clk_bF$buf96 d_lut_CLKBUF1
ACLKBUF1_8 [clk_hier0_bF$buf2] clk_bF$buf95 d_lut_CLKBUF1
ACLKBUF1_9 [clk_hier0_bF$buf1] clk_bF$buf94 d_lut_CLKBUF1
ACLKBUF1_10 [clk_hier0_bF$buf0] clk_bF$buf93 d_lut_CLKBUF1
ACLKBUF1_11 [clk_hier0_bF$buf9] clk_bF$buf92 d_lut_CLKBUF1
ACLKBUF1_12 [clk_hier0_bF$buf8] clk_bF$buf91 d_lut_CLKBUF1
ACLKBUF1_13 [clk_hier0_bF$buf7] clk_bF$buf90 d_lut_CLKBUF1
ACLKBUF1_14 [clk_hier0_bF$buf6] clk_bF$buf89 d_lut_CLKBUF1
ACLKBUF1_15 [clk_hier0_bF$buf5] clk_bF$buf88 d_lut_CLKBUF1
ACLKBUF1_16 [clk_hier0_bF$buf4] clk_bF$buf87 d_lut_CLKBUF1
ACLKBUF1_17 [clk_hier0_bF$buf3] clk_bF$buf86 d_lut_CLKBUF1
ACLKBUF1_18 [clk_hier0_bF$buf2] clk_bF$buf85 d_lut_CLKBUF1
ACLKBUF1_19 [clk_hier0_bF$buf1] clk_bF$buf84 d_lut_CLKBUF1
ACLKBUF1_20 [clk_hier0_bF$buf0] clk_bF$buf83 d_lut_CLKBUF1
ACLKBUF1_21 [clk_hier0_bF$buf9] clk_bF$buf82 d_lut_CLKBUF1
ACLKBUF1_22 [clk_hier0_bF$buf8] clk_bF$buf81 d_lut_CLKBUF1
ACLKBUF1_23 [clk_hier0_bF$buf7] clk_bF$buf80 d_lut_CLKBUF1
ACLKBUF1_24 [clk_hier0_bF$buf6] clk_bF$buf79 d_lut_CLKBUF1
ACLKBUF1_25 [clk_hier0_bF$buf5] clk_bF$buf78 d_lut_CLKBUF1
ACLKBUF1_26 [clk_hier0_bF$buf4] clk_bF$buf77 d_lut_CLKBUF1
ACLKBUF1_27 [clk_hier0_bF$buf3] clk_bF$buf76 d_lut_CLKBUF1
ACLKBUF1_28 [clk_hier0_bF$buf2] clk_bF$buf75 d_lut_CLKBUF1
ACLKBUF1_29 [clk_hier0_bF$buf1] clk_bF$buf74 d_lut_CLKBUF1
ACLKBUF1_30 [clk_hier0_bF$buf0] clk_bF$buf73 d_lut_CLKBUF1
ACLKBUF1_31 [clk_hier0_bF$buf9] clk_bF$buf72 d_lut_CLKBUF1
ACLKBUF1_32 [clk_hier0_bF$buf8] clk_bF$buf71 d_lut_CLKBUF1
ACLKBUF1_33 [clk_hier0_bF$buf7] clk_bF$buf70 d_lut_CLKBUF1
ACLKBUF1_34 [clk_hier0_bF$buf6] clk_bF$buf69 d_lut_CLKBUF1
ACLKBUF1_35 [clk_hier0_bF$buf5] clk_bF$buf68 d_lut_CLKBUF1
ACLKBUF1_36 [clk_hier0_bF$buf4] clk_bF$buf67 d_lut_CLKBUF1
ACLKBUF1_37 [clk_hier0_bF$buf3] clk_bF$buf66 d_lut_CLKBUF1
ACLKBUF1_38 [clk_hier0_bF$buf2] clk_bF$buf65 d_lut_CLKBUF1
ACLKBUF1_39 [clk_hier0_bF$buf1] clk_bF$buf64 d_lut_CLKBUF1
ACLKBUF1_40 [clk_hier0_bF$buf0] clk_bF$buf63 d_lut_CLKBUF1
ACLKBUF1_41 [clk_hier0_bF$buf9] clk_bF$buf62 d_lut_CLKBUF1
ACLKBUF1_42 [clk_hier0_bF$buf8] clk_bF$buf61 d_lut_CLKBUF1
ACLKBUF1_43 [clk_hier0_bF$buf7] clk_bF$buf60 d_lut_CLKBUF1
ACLKBUF1_44 [clk_hier0_bF$buf6] clk_bF$buf59 d_lut_CLKBUF1
ACLKBUF1_45 [clk_hier0_bF$buf5] clk_bF$buf58 d_lut_CLKBUF1
ACLKBUF1_46 [clk_hier0_bF$buf4] clk_bF$buf57 d_lut_CLKBUF1
ACLKBUF1_47 [clk_hier0_bF$buf3] clk_bF$buf56 d_lut_CLKBUF1
ACLKBUF1_48 [clk_hier0_bF$buf2] clk_bF$buf55 d_lut_CLKBUF1
ACLKBUF1_49 [clk_hier0_bF$buf1] clk_bF$buf54 d_lut_CLKBUF1
ACLKBUF1_50 [clk_hier0_bF$buf0] clk_bF$buf53 d_lut_CLKBUF1
ACLKBUF1_51 [clk_hier0_bF$buf9] clk_bF$buf52 d_lut_CLKBUF1
ACLKBUF1_52 [clk_hier0_bF$buf8] clk_bF$buf51 d_lut_CLKBUF1
ACLKBUF1_53 [clk_hier0_bF$buf7] clk_bF$buf50 d_lut_CLKBUF1
ACLKBUF1_54 [clk_hier0_bF$buf6] clk_bF$buf49 d_lut_CLKBUF1
ACLKBUF1_55 [clk_hier0_bF$buf5] clk_bF$buf48 d_lut_CLKBUF1
ACLKBUF1_56 [clk_hier0_bF$buf4] clk_bF$buf47 d_lut_CLKBUF1
ACLKBUF1_57 [clk_hier0_bF$buf3] clk_bF$buf46 d_lut_CLKBUF1
ACLKBUF1_58 [clk_hier0_bF$buf2] clk_bF$buf45 d_lut_CLKBUF1
ACLKBUF1_59 [clk_hier0_bF$buf1] clk_bF$buf44 d_lut_CLKBUF1
ACLKBUF1_60 [clk_hier0_bF$buf0] clk_bF$buf43 d_lut_CLKBUF1
ACLKBUF1_61 [clk_hier0_bF$buf9] clk_bF$buf42 d_lut_CLKBUF1
ACLKBUF1_62 [clk_hier0_bF$buf8] clk_bF$buf41 d_lut_CLKBUF1
ACLKBUF1_63 [clk_hier0_bF$buf7] clk_bF$buf40 d_lut_CLKBUF1
ACLKBUF1_64 [clk_hier0_bF$buf6] clk_bF$buf39 d_lut_CLKBUF1
ACLKBUF1_65 [clk_hier0_bF$buf5] clk_bF$buf38 d_lut_CLKBUF1
ACLKBUF1_66 [clk_hier0_bF$buf4] clk_bF$buf37 d_lut_CLKBUF1
ACLKBUF1_67 [clk_hier0_bF$buf3] clk_bF$buf36 d_lut_CLKBUF1
ACLKBUF1_68 [clk_hier0_bF$buf2] clk_bF$buf35 d_lut_CLKBUF1
ACLKBUF1_69 [clk_hier0_bF$buf1] clk_bF$buf34 d_lut_CLKBUF1
ACLKBUF1_70 [clk_hier0_bF$buf0] clk_bF$buf33 d_lut_CLKBUF1
ACLKBUF1_71 [clk_hier0_bF$buf9] clk_bF$buf32 d_lut_CLKBUF1
ACLKBUF1_72 [clk_hier0_bF$buf8] clk_bF$buf31 d_lut_CLKBUF1
ACLKBUF1_73 [clk_hier0_bF$buf7] clk_bF$buf30 d_lut_CLKBUF1
ACLKBUF1_74 [clk_hier0_bF$buf6] clk_bF$buf29 d_lut_CLKBUF1
ACLKBUF1_75 [clk_hier0_bF$buf5] clk_bF$buf28 d_lut_CLKBUF1
ACLKBUF1_76 [clk_hier0_bF$buf4] clk_bF$buf27 d_lut_CLKBUF1
ACLKBUF1_77 [clk_hier0_bF$buf3] clk_bF$buf26 d_lut_CLKBUF1
ACLKBUF1_78 [clk_hier0_bF$buf2] clk_bF$buf25 d_lut_CLKBUF1
ACLKBUF1_79 [clk_hier0_bF$buf1] clk_bF$buf24 d_lut_CLKBUF1
ACLKBUF1_80 [clk_hier0_bF$buf0] clk_bF$buf23 d_lut_CLKBUF1
ACLKBUF1_81 [clk_hier0_bF$buf9] clk_bF$buf22 d_lut_CLKBUF1
ACLKBUF1_82 [clk_hier0_bF$buf8] clk_bF$buf21 d_lut_CLKBUF1
ACLKBUF1_83 [clk_hier0_bF$buf7] clk_bF$buf20 d_lut_CLKBUF1
ACLKBUF1_84 [clk_hier0_bF$buf6] clk_bF$buf19 d_lut_CLKBUF1
ACLKBUF1_85 [clk_hier0_bF$buf5] clk_bF$buf18 d_lut_CLKBUF1
ACLKBUF1_86 [clk_hier0_bF$buf4] clk_bF$buf17 d_lut_CLKBUF1
ACLKBUF1_87 [clk_hier0_bF$buf3] clk_bF$buf16 d_lut_CLKBUF1
ACLKBUF1_88 [clk_hier0_bF$buf2] clk_bF$buf15 d_lut_CLKBUF1
ACLKBUF1_89 [clk_hier0_bF$buf1] clk_bF$buf14 d_lut_CLKBUF1
ACLKBUF1_90 [clk_hier0_bF$buf0] clk_bF$buf13 d_lut_CLKBUF1
ACLKBUF1_91 [clk_hier0_bF$buf9] clk_bF$buf12 d_lut_CLKBUF1
ACLKBUF1_92 [clk_hier0_bF$buf8] clk_bF$buf11 d_lut_CLKBUF1
ACLKBUF1_93 [clk_hier0_bF$buf7] clk_bF$buf10 d_lut_CLKBUF1
ACLKBUF1_94 [clk_hier0_bF$buf6] clk_bF$buf9 d_lut_CLKBUF1
ACLKBUF1_95 [clk_hier0_bF$buf5] clk_bF$buf8 d_lut_CLKBUF1
ACLKBUF1_96 [clk_hier0_bF$buf4] clk_bF$buf7 d_lut_CLKBUF1
ACLKBUF1_97 [clk_hier0_bF$buf3] clk_bF$buf6 d_lut_CLKBUF1
ACLKBUF1_98 [clk_hier0_bF$buf2] clk_bF$buf5 d_lut_CLKBUF1
ACLKBUF1_99 [clk_hier0_bF$buf1] clk_bF$buf4 d_lut_CLKBUF1
ACLKBUF1_100 [clk_hier0_bF$buf0] clk_bF$buf3 d_lut_CLKBUF1
ACLKBUF1_101 [clk_hier0_bF$buf9] clk_bF$buf2 d_lut_CLKBUF1